LTspice 24.1.0 for Windows
Circuit: D:\Dateien\Git\AEL24-RefDesign\LT-Spice\Diamond buffer.net
Start Time: Thu Mar 27 13:08:41 2025
solver = Normal
Maximum thread count: 16
tnom = 27
temp = 27
method = modified trap
Direct Newton iteration for .op point succeeded.
Total elapsed time: 3.846 seconds.

Files loaded:
D:\Dateien\Git\AEL24-RefDesign\LT-Spice\Diamond buffer.net
C:\Users\Tobias\AppData\Local\LTspice\lib\cmp\standard.bjt

