LTspice 24.1.0 for Windows
Circuit: D:\Dateien\Git\AEL24-RefDesign\LT-Spice\Easy-Amp-B2.net
Start Time: Tue Mar  4 17:28:56 2025
Options: plotwinsize=0  numdgt=7
solver = Normal
Maximum thread count: 16
tnom = 27
temp = 27
method = modified trap
Direct Newton iteration for .op point succeeded.
Total elapsed time: 0.124 seconds.

Files loaded:
D:\Dateien\Git\AEL24-RefDesign\LT-Spice\Easy-Amp-B2.net
C:\Users\Tobias\AppData\Local\LTspice\lib\cmp\standard.dio
C:\Users\Tobias\AppData\Local\LTspice\lib\cmp\standard.bjt

